<routes>

            <vType accel="1.0" decel="4.5" id="standard_car" length="5.0" minGap="2.5" maxSpeed="25" sigma="0.5" />
            <vType accel="1.0" decel="4.5" id="bus" length="10.0" width="3" minGap="2.5" maxSpeed="25" sigma="0.5" color="red" guiShape="bus" />
            <vType vClass="truck" accel="1.0" decel="4.5" id="truck" length="15.0" minGap="2.5" maxSpeed="25" sigma="0.5" color="grey" guiShape="truck" />
            <vType vClass="emergency" id="rescue" guiShape="emergency" >
              <param key="has.bluelight.device" value="true"/>
            </vType>


            <route id="W_N" edges="W2TL TL2N"/>
            <route id="W_E" edges="W2TL TL2E"/>
            <route id="N_E" edges="N2TLT TL2E"/>
            <route id="N_S" edges="N2TL TL2S"/>
            <route id="E_W" edges="E2TL TL2W"/>
            <route id="E_S" edges="E2TL TL2S"/>
            <route id="S_W" edges="S2TLT TL2W"/>
            <route id="S_N" edges="S2TL TL2N"/>
    <vehicle id="E_W_0" type="standard_car" route="E_W" depart="8.0" departLane="random" departSpeed="10" />
    <vehicle id="E_W_1" type="standard_car" route="E_W" depart="8.0" departLane="random" departSpeed="10" />
    <vehicle id="N_E_2" type="standard_car" route="N_E" depart="66.0" departLane="random" departSpeed="10" />
    <vehicle id="N_S_3" type="standard_car" route="N_S" depart="100.0" departLane="random" departSpeed="10" />
    <vehicle id="W_E_4" type="standard_car" route="W_E" depart="119.0" departLane="random" departSpeed="10" />
    <vehicle id="S_N_5" type="standard_car" route="S_N" depart="122.0" departLane="random" departSpeed="10" />
    <vehicle id="N_E_6" type="standard_car" route="N_E" depart="122.0" departLane="random" departSpeed="10" />
    <vehicle id="E_S_7" type="standard_car" route="E_S" depart="146.0" departLane="2" departSpeed="5" />
    <vehicle id="S_N_8" type="standard_car" route="S_N" depart="149.0" departLane="random" departSpeed="10" />
    <vehicle id="W_E_9" type="standard_car" route="W_E" depart="149.0" departLane="random" departSpeed="10" />
    <vehicle id="E_W_10" type="standard_car" route="E_W" depart="169.0" departLane="random" departSpeed="10" />
    <vehicle id="N_E_11" type="standard_car" route="N_E" depart="213.0" departLane="random" departSpeed="10" />
    <vehicle id="S_N_12" type="truck" route="S_N" depart="214.0" departLane="random" departSpeed="10" />
    <vehicle id="N_S_13" type="standard_car" route="N_S" depart="219.0" departLane="random" departSpeed="10" />
    <vehicle id="N_S_14" type="standard_car" route="N_S" depart="222.0" departLane="random" departSpeed="10" />
    <vehicle id="E_W_15" type="standard_car" route="E_W" depart="225.0" departLane="random" departSpeed="10" />
    <vehicle id="S_N_16" type="standard_car" route="S_N" depart="227.0" departLane="random" departSpeed="10" />
    <vehicle id="W_E_17" type="standard_car" route="W_E" depart="279.0" departLane="random" departSpeed="10" />
    <vehicle id="N_E_18" type="standard_car" route="N_E" depart="305.0" departLane="random" departSpeed="10" />
    <vehicle id="S_N_19" type="truck" route="S_N" depart="305.0" departLane="random" departSpeed="10" />
    <vehicle id="N_S_20" type="standard_car" route="N_S" depart="322.0" departLane="random" departSpeed="10" />
    <vehicle id="W_E_21" type="standard_car" route="W_E" depart="326.0" departLane="random" departSpeed="10" />
    <vehicle id="W_E_22" type="standard_car" route="W_E" depart="326.0" departLane="random" departSpeed="10" />
    <vehicle id="E_S_23" type="standard_car" route="E_S" depart="342.0" departLane="2" departSpeed="5" />
    <vehicle id="S_N_24" type="standard_car" route="S_N" depart="347.0" departLane="random" departSpeed="10" />
    <vehicle id="S_N_25" type="bus" route="S_N" depart="353.0" departLane="random" departSpeed="10" />
    <vehicle id="W_E_26" type="standard_car" route="W_E" depart="356.0" departLane="random" departSpeed="10" />
    <vehicle id="W_N_27" type="standard_car" route="W_N" depart="361.0" departLane="3" departSpeed="5" />
    <vehicle id="E_W_28" type="truck" route="E_W" depart="363.0" departLane="random" departSpeed="10" />
    <vehicle id="E_W_29" type="standard_car" route="E_W" depart="364.0" departLane="random" departSpeed="10" />
    <vehicle id="E_W_30" type="bus" route="E_W" depart="372.0" departLane="random" departSpeed="10" />
    <vehicle id="E_W_31" type="standard_car" route="E_W" depart="372.0" departLane="random" departSpeed="10" />
    <vehicle id="W_N_32" type="standard_car" route="W_N" depart="373.0" departLane="3" departSpeed="5" />
    <vehicle id="S_N_33" type="standard_car" route="S_N" depart="379.0" departLane="random" departSpeed="10" />
    <vehicle id="N_E_34" type="standard_car" route="N_E" depart="380.0" departLane="random" departSpeed="10" />
    <vehicle id="N_E_35" type="standard_car" route="N_E" depart="390.0" departLane="random" departSpeed="10" />
    <vehicle id="W_E_36" type="standard_car" route="W_E" depart="394.0" departLane="random" departSpeed="10" />
    <vehicle id="E_W_37" type="standard_car" route="E_W" depart="400.0" departLane="random" departSpeed="10" />
    <vehicle id="S_N_38" type="standard_car" route="S_N" depart="403.0" departLane="random" departSpeed="10" />
    <vehicle id="W_E_39" type="truck" route="W_E" depart="404.0" departLane="random" departSpeed="10" />
    <vehicle id="E_W_40" type="standard_car" route="E_W" depart="409.0" departLane="random" departSpeed="10" />
    <vehicle id="W_E_41" type="standard_car" route="W_E" depart="412.0" departLane="random" departSpeed="10" />
    <vehicle id="N_E_42" type="standard_car" route="N_E" depart="414.0" departLane="random" departSpeed="10" />
    <vehicle id="E_W_43" type="standard_car" route="E_W" depart="427.0" departLane="random" departSpeed="10" />
    <vehicle id="W_E_44" type="truck" route="W_E" depart="442.0" departLane="random" departSpeed="10" />
    <vehicle id="W_E_45" type="truck" route="W_E" depart="443.0" departLane="random" departSpeed="10" />
    <vehicle id="N_E_46" type="standard_car" route="N_E" depart="459.0" departLane="random" departSpeed="10" />
    <vehicle id="E_W_47" type="standard_car" route="E_W" depart="461.0" departLane="random" departSpeed="10" />
    <vehicle id="S_N_48" type="standard_car" route="S_N" depart="463.0" departLane="random" departSpeed="10" />
    <vehicle id="W_E_49" type="truck" route="W_E" depart="469.0" departLane="random" departSpeed="10" />
    <vehicle id="E_W_50" type="standard_car" route="E_W" depart="470.0" departLane="random" departSpeed="10" />
    <vehicle id="N_E_51" type="standard_car" route="N_E" depart="472.0" departLane="random" departSpeed="10" />
    <vehicle id="E_W_52" type="standard_car" route="E_W" depart="480.0" departLane="random" departSpeed="10" />
    <vehicle id="E_W_53" type="standard_car" route="E_W" depart="502.0" departLane="random" departSpeed="10" />
    <vehicle id="N_S_54" type="standard_car" route="N_S" depart="507.0" departLane="random" departSpeed="10" />
    <vehicle id="S_N_55" type="truck" route="S_N" depart="508.0" departLane="random" departSpeed="10" />
    <vehicle id="E_S_56" type="standard_car" route="E_S" depart="509.0" departLane="2" departSpeed="5" />
    <vehicle id="W_E_57" type="standard_car" route="W_E" depart="509.0" departLane="random" departSpeed="10" />
    <vehicle id="N_E_58" type="standard_car" route="N_E" depart="510.0" departLane="random" departSpeed="10" />
    <vehicle id="E_W_59" type="bus" route="E_W" depart="512.0" departLane="random" departSpeed="10" />
    <vehicle id="E_W_60" type="standard_car" route="E_W" depart="515.0" departLane="random" departSpeed="10" />
    <vehicle id="E_W_61" type="standard_car" route="E_W" depart="517.0" departLane="random" departSpeed="10" />
    <vehicle id="E_W_62" type="truck" route="E_W" depart="518.0" departLane="random" departSpeed="10" />
    <vehicle id="W_N_63" type="standard_car" route="W_N" depart="531.0" departLane="3" departSpeed="5" />
    <vehicle id="W_E_64" type="truck" route="W_E" depart="533.0" departLane="random" departSpeed="10" />
    <vehicle id="N_E_65" type="standard_car" route="N_E" depart="541.0" departLane="random" departSpeed="10" />
    <vehicle id="E_S_66" type="standard_car" route="E_S" depart="548.0" departLane="2" departSpeed="5" />
    <vehicle id="N_S_67" type="standard_car" route="N_S" depart="551.0" departLane="random" departSpeed="10" />
    <vehicle id="N_E_68" type="standard_car" route="N_E" depart="561.0" departLane="random" departSpeed="10" />
    <vehicle id="N_S_69" type="standard_car" route="N_S" depart="564.0" departLane="random" departSpeed="10" />
    <vehicle id="N_S_70" type="standard_car" route="N_S" depart="569.0" departLane="random" departSpeed="10" />
    <vehicle id="E_W_71" type="standard_car" route="E_W" depart="571.0" departLane="random" departSpeed="10" />
    <vehicle id="N_E_72" type="standard_car" route="N_E" depart="575.0" departLane="random" departSpeed="10" />
    <vehicle id="N_S_73" type="standard_car" route="N_S" depart="575.0" departLane="random" departSpeed="10" />
    <vehicle id="W_N_74" type="standard_car" route="W_N" depart="581.0" departLane="2" departSpeed="5" />
    <vehicle id="W_E_75" type="standard_car" route="W_E" depart="582.0" departLane="random" departSpeed="10" />
    <vehicle id="S_N_76" type="standard_car" route="S_N" depart="585.0" departLane="random" departSpeed="10" />
    <vehicle id="W_N_77" type="standard_car" route="W_N" depart="588.0" departLane="3" departSpeed="5" />
    <vehicle id="N_S_78" type="standard_car" route="N_S" depart="588.0" departLane="random" departSpeed="10" />
    <vehicle id="S_N_79" type="truck" route="S_N" depart="589.0" departLane="random" departSpeed="10" />
    <vehicle id="S_N_80" type="standard_car" route="S_N" depart="595.0" departLane="random" departSpeed="10" />
    <vehicle id="W_E_81" type="standard_car" route="W_E" depart="596.0" departLane="random" departSpeed="10" />
    <vehicle id="S_N_82" type="bus" route="S_N" depart="597.0" departLane="random" departSpeed="10" />
    <vehicle id="W_E_83" type="standard_car" route="W_E" depart="601.0" departLane="random" departSpeed="10" />
    <vehicle id="N_S_84" type="bus" route="N_S" depart="602.0" departLane="random" departSpeed="10" />
    <vehicle id="E_W_85" type="standard_car" route="E_W" depart="602.0" departLane="random" departSpeed="10" />
    <vehicle id="N_S_86" type="truck" route="N_S" depart="602.0" departLane="random" departSpeed="10" />
    <vehicle id="N_S_87" type="bus" route="N_S" depart="604.0" departLane="random" departSpeed="10" />
    <vehicle id="N_S_88" type="bus" route="N_S" depart="606.0" departLane="random" departSpeed="10" />
    <vehicle id="E_W_89" type="standard_car" route="E_W" depart="611.0" departLane="random" departSpeed="10" />
    <vehicle id="N_S_90" type="bus" route="N_S" depart="614.0" departLane="random" departSpeed="10" />
    <vehicle id="W_E_91" type="truck" route="W_E" depart="615.0" departLane="random" departSpeed="10" />
    <vehicle id="W_E_92" type="standard_car" route="W_E" depart="619.0" departLane="random" departSpeed="10" />
    <vehicle id="E_W_93" type="standard_car" route="E_W" depart="622.0" departLane="random" departSpeed="10" />
    <vehicle id="S_N_94" type="bus" route="S_N" depart="622.0" departLane="random" departSpeed="10" />
    <vehicle id="W_N_95" type="standard_car" route="W_N" depart="626.0" departLane="2" departSpeed="5" />
    <vehicle id="E_S_96" type="standard_car" route="E_S" depart="627.0" departLane="2" departSpeed="5" />
    <vehicle id="W_N_97" type="standard_car" route="W_N" depart="631.0" departLane="2" departSpeed="5" />
    <vehicle id="E_W_98" type="standard_car" route="E_W" depart="640.0" departLane="random" departSpeed="10" />
    <vehicle id="N_S_99" type="standard_car" route="N_S" depart="642.0" departLane="random" departSpeed="10" />
    <vehicle id="N_S_100" type="truck" route="N_S" depart="643.0" departLane="random" departSpeed="10" />
    <vehicle id="W_N_101" type="standard_car" route="W_N" depart="647.0" departLane="2" departSpeed="5" />
    <vehicle id="W_E_102" type="bus" route="W_E" depart="647.0" departLane="random" departSpeed="10" />
    <vehicle id="W_E_103" type="standard_car" route="W_E" depart="652.0" departLane="random" departSpeed="10" />
    <vehicle id="S_N_104" type="standard_car" route="S_N" depart="656.0" departLane="random" departSpeed="10" />
    <vehicle id="W_E_105" type="bus" route="W_E" depart="659.0" departLane="random" departSpeed="10" />
    <vehicle id="W_E_106" type="standard_car" route="W_E" depart="663.0" departLane="random" departSpeed="10" />
    <vehicle id="S_N_107" type="standard_car" route="S_N" depart="664.0" departLane="random" departSpeed="10" />
    <vehicle id="N_S_108" type="bus" route="N_S" depart="666.0" departLane="random" departSpeed="10" />
    <vehicle id="N_S_109" type="standard_car" route="N_S" depart="678.0" departLane="random" departSpeed="10" />
    <vehicle id="E_W_110" type="truck" route="E_W" depart="679.0" departLane="random" departSpeed="10" />
    <vehicle id="N_S_111" type="standard_car" route="N_S" depart="680.0" departLane="random" departSpeed="10" />
    <vehicle id="S_N_112" type="standard_car" route="S_N" depart="681.0" departLane="random" departSpeed="10" />
    <vehicle id="E_W_113" type="standard_car" route="E_W" depart="684.0" departLane="random" departSpeed="10" />
    <vehicle id="N_S_114" type="standard_car" route="N_S" depart="686.0" departLane="random" departSpeed="10" />
    <vehicle id="E_S_115" type="standard_car" route="E_S" depart="686.0" departLane="2" departSpeed="5" />
    <vehicle id="E_W_116" type="standard_car" route="E_W" depart="687.0" departLane="random" departSpeed="10" />
    <vehicle id="E_W_117" type="bus" route="E_W" depart="687.0" departLane="random" departSpeed="10" />
    <vehicle id="N_E_118" type="standard_car" route="N_E" depart="695.0" departLane="random" departSpeed="10" />
    <vehicle id="N_S_119" type="standard_car" route="N_S" depart="707.0" departLane="random" departSpeed="10" />
    <vehicle id="W_N_120" type="standard_car" route="W_N" depart="710.0" departLane="2" departSpeed="5" />
    <vehicle id="W_N_121" type="standard_car" route="W_N" depart="710.0" departLane="3" departSpeed="5" />
    <vehicle id="S_N_122" type="standard_car" route="S_N" depart="713.0" departLane="random" departSpeed="10" />
    <vehicle id="W_N_123" type="standard_car" route="W_N" depart="715.0" departLane="3" departSpeed="5" />
    <vehicle id="N_S_124" type="standard_car" route="N_S" depart="715.0" departLane="random" departSpeed="10" />
    <vehicle id="E_W_125" type="standard_car" route="E_W" depart="716.0" departLane="random" departSpeed="10" />
    <vehicle id="W_E_126" type="standard_car" route="W_E" depart="717.0" departLane="random" departSpeed="10" />
    <vehicle id="E_S_127" type="standard_car" route="E_S" depart="717.0" departLane="2" departSpeed="5" />
    <vehicle id="E_W_128" type="bus" route="E_W" depart="718.0" departLane="random" departSpeed="10" />
    <vehicle id="S_N_129" type="bus" route="S_N" depart="725.0" departLane="random" departSpeed="10" />
    <vehicle id="E_W_130" type="standard_car" route="E_W" depart="729.0" departLane="random" departSpeed="10" />
    <vehicle id="N_E_131" type="standard_car" route="N_E" depart="731.0" departLane="random" departSpeed="10" />
    <vehicle id="N_S_132" type="standard_car" route="N_S" depart="731.0" departLane="random" departSpeed="10" />
    <vehicle id="W_N_133" type="standard_car" route="W_N" depart="734.0" departLane="2" departSpeed="5" />
    <vehicle id="W_E_134" type="standard_car" route="W_E" depart="735.0" departLane="random" departSpeed="10" />
    <vehicle id="N_S_135" type="standard_car" route="N_S" depart="736.0" departLane="random" departSpeed="10" />
    <vehicle id="W_E_136" type="standard_car" route="W_E" depart="737.0" departLane="random" departSpeed="10" />
    <vehicle id="N_S_137" type="standard_car" route="N_S" depart="738.0" departLane="random" departSpeed="10" />
    <vehicle id="W_E_138" type="standard_car" route="W_E" depart="746.0" departLane="random" departSpeed="10" />
    <vehicle id="N_S_139" type="standard_car" route="N_S" depart="747.0" departLane="random" departSpeed="10" />
    <vehicle id="E_S_140" type="standard_car" route="E_S" depart="748.0" departLane="2" departSpeed="5" />
    <vehicle id="S_N_141" type="standard_car" route="S_N" depart="750.0" departLane="random" departSpeed="10" />
    <vehicle id="E_W_142" type="standard_car" route="E_W" depart="752.0" departLane="random" departSpeed="10" />
    <vehicle id="E_W_143" type="standard_car" route="E_W" depart="754.0" departLane="random" departSpeed="10" />
    <vehicle id="S_N_144" type="standard_car" route="S_N" depart="755.0" departLane="random" departSpeed="10" />
    <vehicle id="W_N_145" type="standard_car" route="W_N" depart="757.0" departLane="3" departSpeed="5" />
    <vehicle id="N_E_146" type="standard_car" route="N_E" depart="757.0" departLane="random" departSpeed="10" />
    <vehicle id="S_N_147" type="standard_car" route="S_N" depart="757.0" departLane="random" departSpeed="10" />
    <vehicle id="W_E_148" type="bus" route="W_E" depart="758.0" departLane="random" departSpeed="10" />
    <vehicle id="W_N_149" type="standard_car" route="W_N" depart="760.0" departLane="2" departSpeed="5" />
    <vehicle id="S_N_150" type="standard_car" route="S_N" depart="763.0" departLane="random" departSpeed="10" />
    <vehicle id="W_E_151" type="standard_car" route="W_E" depart="765.0" departLane="random" departSpeed="10" />
    <vehicle id="N_E_152" type="standard_car" route="N_E" depart="767.0" departLane="random" departSpeed="10" />
    <vehicle id="E_S_153" type="standard_car" route="E_S" depart="767.0" departLane="2" departSpeed="5" />
    <vehicle id="W_E_154" type="truck" route="W_E" depart="771.0" departLane="random" departSpeed="10" />
    <vehicle id="S_N_155" type="standard_car" route="S_N" depart="772.0" departLane="random" departSpeed="10" />
    <vehicle id="E_S_156" type="standard_car" route="E_S" depart="779.0" departLane="2" departSpeed="5" />
    <vehicle id="N_E_157" type="standard_car" route="N_E" depart="787.0" departLane="random" departSpeed="10" />
    <vehicle id="W_E_158" type="standard_car" route="W_E" depart="787.0" departLane="random" departSpeed="10" />
    <vehicle id="N_E_159" type="standard_car" route="N_E" depart="791.0" departLane="random" departSpeed="10" />
    <vehicle id="S_N_160" type="standard_car" route="S_N" depart="791.0" departLane="random" departSpeed="10" />
    <vehicle id="W_N_161" type="standard_car" route="W_N" depart="791.0" departLane="3" departSpeed="5" />
    <vehicle id="W_N_162" type="standard_car" route="W_N" depart="791.0" departLane="3" departSpeed="5" />
    <vehicle id="N_S_163" type="standard_car" route="N_S" depart="803.0" departLane="random" departSpeed="10" />
    <vehicle id="E_W_164" type="standard_car" route="E_W" depart="815.0" departLane="random" departSpeed="10" />
    <vehicle id="W_E_165" type="standard_car" route="W_E" depart="819.0" departLane="random" departSpeed="10" />
    <vehicle id="E_W_166" type="standard_car" route="E_W" depart="820.0" departLane="random" departSpeed="10" />
    <vehicle id="N_E_167" type="standard_car" route="N_E" depart="826.0" departLane="random" departSpeed="10" />
    <vehicle id="N_E_168" type="standard_car" route="N_E" depart="826.0" departLane="random" departSpeed="10" />
    <vehicle id="E_S_169" type="standard_car" route="E_S" depart="828.0" departLane="2" departSpeed="5" />
    <vehicle id="E_W_170" type="standard_car" route="E_W" depart="829.0" departLane="random" departSpeed="10" />
    <vehicle id="W_E_171" type="standard_car" route="W_E" depart="832.0" departLane="random" departSpeed="10" />
    <vehicle id="E_W_172" type="truck" route="E_W" depart="834.0" departLane="random" departSpeed="10" />
    <vehicle id="S_N_173" type="standard_car" route="S_N" depart="834.0" departLane="random" departSpeed="10" />
    <vehicle id="E_W_174" type="standard_car" route="E_W" depart="839.0" departLane="random" departSpeed="10" />
    <vehicle id="N_S_175" type="truck" route="N_S" depart="846.0" departLane="random" departSpeed="10" />
    <vehicle id="S_N_176" type="bus" route="S_N" depart="848.0" departLane="random" departSpeed="10" />
    <vehicle id="S_N_177" type="bus" route="S_N" depart="849.0" departLane="random" departSpeed="10" />
    <vehicle id="N_S_178" type="standard_car" route="N_S" depart="852.0" departLane="random" departSpeed="10" />
    <vehicle id="E_S_179" type="standard_car" route="E_S" depart="853.0" departLane="2" departSpeed="5" />
    <vehicle id="E_S_180" type="standard_car" route="E_S" depart="859.0" departLane="2" departSpeed="5" />
    <vehicle id="E_W_181" type="standard_car" route="E_W" depart="861.0" departLane="random" departSpeed="10" />
    <vehicle id="S_N_182" type="standard_car" route="S_N" depart="862.0" departLane="random" departSpeed="10" />
    <vehicle id="E_W_183" type="bus" route="E_W" depart="862.0" departLane="random" departSpeed="10" />
    <vehicle id="N_S_184" type="standard_car" route="N_S" depart="863.0" departLane="random" departSpeed="10" />
    <vehicle id="E_W_185" type="standard_car" route="E_W" depart="863.0" departLane="random" departSpeed="10" />
    <vehicle id="W_N_186" type="standard_car" route="W_N" depart="865.0" departLane="3" departSpeed="5" />
    <vehicle id="N_E_187" type="standard_car" route="N_E" depart="869.0" departLane="random" departSpeed="10" />
    <vehicle id="S_N_188" type="bus" route="S_N" depart="878.0" departLane="random" departSpeed="10" />
    <vehicle id="N_S_189" type="standard_car" route="N_S" depart="878.0" departLane="random" departSpeed="10" />
    <vehicle id="N_S_190" type="standard_car" route="N_S" depart="879.0" departLane="random" departSpeed="10" />
    <vehicle id="N_S_191" type="standard_car" route="N_S" depart="879.0" departLane="random" departSpeed="10" />
    <vehicle id="W_N_192" type="standard_car" route="W_N" depart="889.0" departLane="2" departSpeed="5" />
    <vehicle id="W_E_193" type="truck" route="W_E" depart="889.0" departLane="random" departSpeed="10" />
    <vehicle id="N_S_194" type="standard_car" route="N_S" depart="891.0" departLane="random" departSpeed="10" />
    <vehicle id="N_E_195" type="standard_car" route="N_E" depart="893.0" departLane="random" departSpeed="10" />
    <vehicle id="E_W_196" type="standard_car" route="E_W" depart="894.0" departLane="random" departSpeed="10" />
    <vehicle id="E_W_197" type="standard_car" route="E_W" depart="901.0" departLane="random" departSpeed="10" />
    <vehicle id="S_N_198" type="standard_car" route="S_N" depart="902.0" departLane="random" departSpeed="10" />
    <vehicle id="N_E_199" type="standard_car" route="N_E" depart="902.0" departLane="random" departSpeed="10" />
    <vehicle id="S_N_200" type="standard_car" route="S_N" depart="902.0" departLane="random" departSpeed="10" />
    <vehicle id="S_N_201" type="standard_car" route="S_N" depart="904.0" departLane="random" departSpeed="10" />
    <vehicle id="W_E_202" type="standard_car" route="W_E" depart="920.0" departLane="random" departSpeed="10" />
    <vehicle id="E_W_203" type="standard_car" route="E_W" depart="922.0" departLane="random" departSpeed="10" />
    <vehicle id="S_N_204" type="standard_car" route="S_N" depart="922.0" departLane="random" departSpeed="10" />
    <vehicle id="N_E_205" type="standard_car" route="N_E" depart="924.0" departLane="random" departSpeed="10" />
    <vehicle id="W_E_206" type="standard_car" route="W_E" depart="924.0" departLane="random" departSpeed="10" />
    <vehicle id="E_S_207" type="standard_car" route="E_S" depart="927.0" departLane="2" departSpeed="5" />
    <vehicle id="N_S_208" type="standard_car" route="N_S" depart="931.0" departLane="random" departSpeed="10" />
    <vehicle id="W_E_209" type="standard_car" route="W_E" depart="931.0" departLane="random" departSpeed="10" />
    <vehicle id="W_N_210" type="standard_car" route="W_N" depart="932.0" departLane="3" departSpeed="5" />
    <vehicle id="W_E_211" type="standard_car" route="W_E" depart="932.0" departLane="random" departSpeed="10" />
    <vehicle id="N_S_212" type="standard_car" route="N_S" depart="933.0" departLane="random" departSpeed="10" />
    <vehicle id="E_W_213" type="standard_car" route="E_W" depart="935.0" departLane="random" departSpeed="10" />
    <vehicle id="N_S_214" type="standard_car" route="N_S" depart="936.0" departLane="random" departSpeed="10" />
    <vehicle id="W_E_215" type="standard_car" route="W_E" depart="936.0" departLane="random" departSpeed="10" />
    <vehicle id="W_E_216" type="standard_car" route="W_E" depart="937.0" departLane="random" departSpeed="10" />
    <vehicle id="W_E_217" type="standard_car" route="W_E" depart="941.0" departLane="random" departSpeed="10" />
    <vehicle id="W_N_218" type="standard_car" route="W_N" depart="942.0" departLane="2" departSpeed="5" />
    <vehicle id="S_N_219" type="bus" route="S_N" depart="948.0" departLane="random" departSpeed="10" />
    <vehicle id="S_N_220" type="standard_car" route="S_N" depart="951.0" departLane="random" departSpeed="10" />
    <vehicle id="S_N_221" type="standard_car" route="S_N" depart="954.0" departLane="random" departSpeed="10" />
    <vehicle id="S_N_222" type="truck" route="S_N" depart="957.0" departLane="random" departSpeed="10" />
    <vehicle id="E_W_223" type="bus" route="E_W" depart="962.0" departLane="random" departSpeed="10" />
    <vehicle id="W_E_224" type="standard_car" route="W_E" depart="963.0" departLane="random" departSpeed="10" />
    <vehicle id="W_E_225" type="standard_car" route="W_E" depart="964.0" departLane="random" departSpeed="10" />
    <vehicle id="E_S_226" type="standard_car" route="E_S" depart="967.0" departLane="2" departSpeed="5" />
    <vehicle id="W_E_227" type="standard_car" route="W_E" depart="970.0" departLane="random" departSpeed="10" />
    <vehicle id="S_N_228" type="standard_car" route="S_N" depart="971.0" departLane="random" departSpeed="10" />
    <vehicle id="W_E_229" type="standard_car" route="W_E" depart="971.0" departLane="random" departSpeed="10" />
    <vehicle id="E_W_230" type="standard_car" route="E_W" depart="971.0" departLane="random" departSpeed="10" />
    <vehicle id="W_E_231" type="standard_car" route="W_E" depart="971.0" departLane="random" departSpeed="10" />
    <vehicle id="W_E_232" type="standard_car" route="W_E" depart="975.0" departLane="random" departSpeed="10" />
    <vehicle id="E_W_233" type="standard_car" route="E_W" depart="978.0" departLane="random" departSpeed="10" />
    <vehicle id="N_S_234" type="standard_car" route="N_S" depart="979.0" departLane="random" departSpeed="10" />
    <vehicle id="E_W_235" type="standard_car" route="E_W" depart="983.0" departLane="random" departSpeed="10" />
    <vehicle id="W_N_236" type="standard_car" route="W_N" depart="985.0" departLane="3" departSpeed="5" />
    <vehicle id="E_W_237" type="standard_car" route="E_W" depart="987.0" departLane="random" departSpeed="10" />
    <vehicle id="S_N_238" type="standard_car" route="S_N" depart="992.0" departLane="random" departSpeed="10" />
    <vehicle id="E_W_239" type="standard_car" route="E_W" depart="992.0" departLane="random" departSpeed="10" />
    <vehicle id="E_S_240" type="standard_car" route="E_S" depart="993.0" departLane="2" departSpeed="5" />
    <vehicle id="N_S_241" type="standard_car" route="N_S" depart="996.0" departLane="random" departSpeed="10" />
    <vehicle id="E_S_242" type="standard_car" route="E_S" depart="997.0" departLane="2" departSpeed="5" />
    <vehicle id="S_N_243" type="standard_car" route="S_N" depart="998.0" departLane="random" departSpeed="10" />
    <vehicle id="E_W_244" type="standard_car" route="E_W" depart="998.0" departLane="random" departSpeed="10" />
    <vehicle id="N_E_245" type="standard_car" route="N_E" depart="1005.0" departLane="random" departSpeed="10" />
    <vehicle id="S_N_246" type="standard_car" route="S_N" depart="1008.0" departLane="random" departSpeed="10" />
    <vehicle id="E_S_247" type="standard_car" route="E_S" depart="1010.0" departLane="2" departSpeed="5" />
    <vehicle id="S_N_248" type="standard_car" route="S_N" depart="1015.0" departLane="random" departSpeed="10" />
    <vehicle id="E_W_249" type="standard_car" route="E_W" depart="1016.0" departLane="random" departSpeed="10" />
    <vehicle id="E_S_250" type="standard_car" route="E_S" depart="1016.0" departLane="2" departSpeed="5" />
    <vehicle id="W_N_251" type="standard_car" route="W_N" depart="1017.0" departLane="3" departSpeed="5" />
    <vehicle id="W_E_252" type="truck" route="W_E" depart="1017.0" departLane="random" departSpeed="10" />
    <vehicle id="N_E_253" type="standard_car" route="N_E" depart="1017.0" departLane="random" departSpeed="10" />
    <vehicle id="N_S_254" type="standard_car" route="N_S" depart="1025.0" departLane="random" departSpeed="10" />
    <vehicle id="E_W_255" type="bus" route="E_W" depart="1025.0" departLane="random" departSpeed="10" />
    <vehicle id="E_W_256" type="standard_car" route="E_W" depart="1026.0" departLane="random" departSpeed="10" />
    <vehicle id="E_W_257" type="standard_car" route="E_W" depart="1027.0" departLane="random" departSpeed="10" />
    <vehicle id="E_S_258" type="standard_car" route="E_S" depart="1028.0" departLane="2" departSpeed="5" />
    <vehicle id="E_S_259" type="standard_car" route="E_S" depart="1034.0" departLane="2" departSpeed="5" />
    <vehicle id="E_W_260" type="truck" route="E_W" depart="1040.0" departLane="random" departSpeed="10" />
    <vehicle id="E_S_261" type="standard_car" route="E_S" depart="1044.0" departLane="2" departSpeed="5" />
    <vehicle id="N_E_262" type="standard_car" route="N_E" depart="1044.0" departLane="random" departSpeed="10" />