<?xml version="1.0" encoding="UTF-8"?>

<!-- generated on 2023-05-13 19:42:44 by Eclipse SUMO netedit Version v1_17_0+0172-8b68beeaf46
<configuration xmlns:xsi="http://www.w3.org/2001/XMLSchema-instance" xsi:noNamespaceSchemaLocation="http://sumo.dlr.de/xsd/netconvertConfiguration.xsd">

    <input>
        <sumo-net-file value="/Users/eman.shuaib/Deep-QLearning-Agent-for-Traffic-Signal-Control/TLCS/intersection/riffa_sanad.net.xml"/>
    </input>

    <output>
        <output-file value="/Users/eman.shuaib/Deep-QLearning-Agent-for-Traffic-Signal-Control/TLCS/intersection/riffa_sanad.net.xml"/>
        <output.street-names value="true"/>
    </output>

    <processing>
        <geometry.min-radius.fix.railways value="false"/>
        <geometry.max-grade.fix value="false"/>
        <offset.disable-normalization value="true"/>
        <lefthand value="0"/>
    </processing>

    <junctions>
        <no-turnarounds value="true"/>
        <junctions.corner-detail value="5"/>
        <junctions.limit-turn-speed value="5.50"/>
        <rectangular-lane-cut value="0"/>
    </junctions>

    <pedestrian>
        <walkingareas value="0"/>
    </pedestrian>

</configuration>
-->

<net version="1.16" junctionCornerDetail="5" limitTurnSpeed="5.50" xmlns:xsi="http://www.w3.org/2001/XMLSchema-instance" xsi:noNamespaceSchemaLocation="http://sumo.dlr.de/xsd/net_file.xsd">

    <location netOffset="-457341.97,-2890286.92" convBoundary="600.89,0.00,1306.44,1219.05" origBoundary="50.573254,26.131269,50.586547,26.151322" projParameter="+proj=utm +zone=39 +ellps=WGS84 +datum=WGS84 +units=m +no_defs"/>

    <type id="highway.bridleway" priority="1" numLanes="1" speed="2.78" allow="pedestrian" oneway="1" width="2.00"/>
    <type id="highway.bus_guideway" priority="1" numLanes="1" speed="27.78" allow="bus" oneway="1"/>
    <type id="highway.cycleway" priority="1" numLanes="1" speed="5.56" allow="bicycle" oneway="0" width="1.00"/>
    <type id="highway.footway" priority="1" numLanes="1" speed="2.78" allow="pedestrian" oneway="1" width="2.00"/>
    <type id="highway.ford" priority="1" numLanes="1" speed="2.78" allow="army" oneway="0"/>
    <type id="highway.living_street" priority="2" numLanes="1" speed="2.78" disallow="tram rail_urban rail rail_electric rail_fast ship" oneway="0"/>
    <type id="highway.motorway" priority="14" numLanes="2" speed="39.44" allow="private emergency authority army vip passenger hov taxi bus coach delivery truck trailer motorcycle evehicle custom1 custom2" oneway="1"/>
    <type id="highway.motorway_link" priority="9" numLanes="1" speed="22.22" allow="private emergency authority army vip passenger hov taxi bus coach delivery truck trailer motorcycle evehicle custom1 custom2" oneway="1"/>
    <type id="highway.path" priority="1" numLanes="1" speed="5.56" allow="pedestrian bicycle" oneway="0" width="2.00"/>
    <type id="highway.pedestrian" priority="1" numLanes="1" speed="2.78" allow="pedestrian" oneway="1" width="2.00"/>
    <type id="highway.primary" priority="12" numLanes="2" speed="27.78" disallow="tram rail_urban rail rail_electric rail_fast ship" oneway="0"/>
    <type id="highway.primary_link" priority="7" numLanes="1" speed="22.22" disallow="tram rail_urban rail rail_electric rail_fast ship" oneway="0"/>
    <type id="highway.raceway" priority="15" numLanes="2" speed="83.33" allow="vip" oneway="0"/>
    <type id="highway.residential" priority="3" numLanes="1" speed="13.89" disallow="tram rail_urban rail rail_electric rail_fast ship" oneway="0"/>
    <type id="highway.secondary" priority="11" numLanes="1" speed="27.78" disallow="tram rail_urban rail rail_electric rail_fast ship" oneway="0"/>
    <type id="highway.secondary_link" priority="6" numLanes="1" speed="22.22" disallow="tram rail_urban rail rail_electric rail_fast ship" oneway="0"/>
    <type id="highway.service" priority="1" numLanes="1" speed="5.56" allow="pedestrian delivery bicycle" oneway="0"/>
    <type id="highway.stairs" priority="1" numLanes="1" speed="1.39" allow="pedestrian" oneway="1" width="2.00"/>
    <type id="highway.step" priority="1" numLanes="1" speed="1.39" allow="pedestrian" oneway="1" width="2.00"/>
    <type id="highway.steps" priority="1" numLanes="1" speed="1.39" allow="pedestrian" oneway="1" width="2.00"/>
    <type id="highway.tertiary" priority="10" numLanes="1" speed="22.22" disallow="tram rail_urban rail rail_electric rail_fast ship" oneway="0"/>
    <type id="highway.tertiary_link" priority="5" numLanes="1" speed="22.22" disallow="tram rail_urban rail rail_electric rail_fast ship" oneway="0"/>
    <type id="highway.track" priority="1" numLanes="1" speed="5.56" allow="pedestrian motorcycle moped bicycle" oneway="0"/>
    <type id="highway.trunk" priority="13" numLanes="2" speed="27.78" disallow="pedestrian bicycle tram rail_urban rail rail_electric rail_fast ship" oneway="0"/>
    <type id="highway.trunk_link" priority="8" numLanes="1" speed="22.22" disallow="pedestrian bicycle tram rail_urban rail rail_electric rail_fast ship" oneway="0"/>
    <type id="highway.unclassified" priority="4" numLanes="1" speed="13.89" disallow="tram rail_urban rail rail_electric rail_fast ship" oneway="0"/>
    <type id="highway.unsurfaced" priority="1" numLanes="1" speed="8.33" disallow="tram rail_urban rail rail_electric rail_fast ship" oneway="0"/>
    <type id="railway.highspeed" priority="21" numLanes="1" speed="69.44" allow="rail_fast" oneway="1"/>
    <type id="railway.light_rail" priority="19" numLanes="1" speed="27.78" allow="rail_urban" oneway="1"/>
    <type id="railway.preserved" priority="16" numLanes="1" speed="27.78" allow="rail" oneway="1"/>
    <type id="railway.rail" priority="20" numLanes="1" speed="44.44" allow="rail" oneway="1"/>
    <type id="railway.subway" priority="18" numLanes="1" speed="27.78" allow="rail_urban" oneway="1"/>
    <type id="railway.tram" priority="17" numLanes="1" speed="13.89" allow="tram" oneway="1"/>

    <edge id=":257375847#2-AddedOffRampNode_0" function="internal">
        <lane id=":257375847#2-AddedOffRampNode_0_0" index="0" disallow="pedestrian tram rail_urban rail rail_electric rail_fast ship" speed="27.78" length="3.93" shape="895.07,907.22 894.43,912.01"/>
        <lane id=":257375847#2-AddedOffRampNode_0_1" index="1" disallow="pedestrian tram rail_urban rail rail_electric rail_fast ship" speed="27.78" length="3.93" shape="895.07,907.22 892.33,909.59"/>
        <lane id=":257375847#2-AddedOffRampNode_0_2" index="2" disallow="pedestrian tram rail_urban rail rail_electric rail_fast ship" speed="27.78" length="3.93" shape="892.97,904.81 890.23,907.18"/>
        <lane id=":257375847#2-AddedOffRampNode_0_3" index="3" disallow="pedestrian tram rail_urban rail rail_electric rail_fast ship" speed="27.78" length="3.93" shape="890.86,902.39 888.13,904.77"/>
    </edge>
    <edge id=":5838705856_0" function="internal">
        <lane id=":5838705856_0_0" index="0" disallow="tram rail_urban rail rail_electric rail_fast ship" speed="5.56" length="0.10" shape="811.60,1040.00 811.60,1040.00"/>
    </edge>
    <edge id=":DNR_0" function="internal">
        <lane id=":DNR_0_0" index="0" disallow="tram rail_urban rail rail_electric rail_fast ship" speed="16.67" length="14.99" shape="692.40,1122.90 694.76,1118.87 695.78,1115.44 696.12,1112.20 696.43,1108.73"/>
    </edge>
    <edge id=":DNR_1" function="internal">
        <lane id=":DNR_1_0" index="0" disallow="tram rail_urban rail rail_electric rail_fast ship" speed="27.78" length="15.13" shape="692.40,1122.90 701.09,1110.57"/>
        <lane id=":DNR_1_1" index="1" disallow="tram rail_urban rail rail_electric rail_fast ship" speed="27.78" length="15.13" shape="694.99,1124.78 703.70,1112.41"/>
        <lane id=":DNR_1_2" index="2" disallow="tram rail_urban rail rail_electric rail_fast ship" speed="27.78" length="15.13" shape="697.59,1126.66 706.32,1114.26"/>
    </edge>
    <edge id=":DSL_0" function="internal">
        <lane id=":DSL_0_0" index="0" disallow="tram rail_urban rail rail_electric rail_fast ship" speed="19.45" length="3.10" shape="777.56,999.20 779.54,996.81"/>
    </edge>
    <edge id=":DSL_1" function="internal">
        <lane id=":DSL_1_0" index="0" disallow="tram rail_urban rail rail_electric rail_fast ship" speed="27.78" length="2.96" shape="780.24,1001.17 782.07,998.77"/>
        <lane id=":DSL_1_1" index="1" disallow="tram rail_urban rail rail_electric rail_fast ship" speed="27.78" length="2.96" shape="782.80,1003.09 784.60,1000.73"/>
        <lane id=":DSL_1_2" index="2" disallow="tram rail_urban rail rail_electric rail_fast ship" speed="27.78" length="2.96" shape="785.37,1005.01 787.13,1002.69"/>
    </edge>
    <edge id=":DSR_0" function="internal">
        <lane id=":DSR_0_0" index="0" disallow="pedestrian tram rail_urban rail rail_electric rail_fast ship" speed="16.67" length="3.91" shape="832.84,981.41 830.33,984.41"/>
    </edge>
    <edge id=":DSR_1" function="internal">
        <lane id=":DSR_1_0" index="0" disallow="pedestrian tram rail_urban rail rail_electric rail_fast ship" speed="27.78" length="3.45" shape="830.31,979.46 828.08,982.40"/>
        <lane id=":DSR_1_1" index="1" disallow="pedestrian tram rail_urban rail rail_electric rail_fast ship" speed="27.78" length="3.45" shape="827.77,977.51 825.69,980.26"/>
        <lane id=":DSR_1_2" index="2" disallow="pedestrian tram rail_urban rail rail_electric rail_fast ship" speed="27.78" length="3.45" shape="825.24,975.56 823.30,978.12"/>
    </edge>
    <edge id=":DWL_0" function="internal">
        <lane id=":DWL_0_0" index="0" disallow="tram rail_urban rail rail_electric rail_fast ship" speed="11.54" length="18.19" shape="699.14,1061.08 698.03,1056.27 696.00,1052.30 693.05,1049.17 689.18,1046.88"/>
    </edge>
    <edge id=":DWL_1" function="internal">
        <lane id=":DWL_1_0" index="0" disallow="tram rail_urban rail rail_electric rail_fast ship" speed="15.28" length="13.90" shape="702.36,1051.48 689.18,1046.88"/>
        <lane id=":DWL_1_1" index="1" disallow="tram rail_urban rail rail_electric rail_fast ship" speed="15.28" length="13.90" shape="703.53,1048.51 690.46,1043.94"/>
    </edge>
    <edge id=":TL_0" function="internal">
        <lane id=":TL_0_0" index="0" disallow="tram rail_urban rail rail_electric rail_fast ship" speed="12.50" length="47.53" shape="773.60,1076.25 761.62,1073.26 748.95,1069.02 737.28,1064.65 728.30,1061.27"/>
        <lane id=":TL_0_1" index="1" disallow="tram rail_urban rail rail_electric rail_fast ship" speed="12.50" length="47.53" shape="774.22,1073.11 762.31,1070.14 749.80,1065.94 738.28,1061.62 729.37,1058.26"/>
    </edge>
    <edge id=":TL_2" function="internal">
        <lane id=":TL_2_0" index="0" disallow="tram rail_urban rail rail_electric rail_fast ship" speed="11.57" length="42.00" shape="774.80,1069.96 762.97,1066.17 755.46,1059.92 753.44,1051.53 758.10,1041.36"/>
    </edge>
    <edge id=":TL_3" function="internal">
        <lane id=":TL_3_0" index="0" disallow="pedestrian tram rail_urban rail rail_electric rail_fast ship" speed="27.78" length="37.94" shape="774.27,1053.76 752.87,1085.05"/>
        <lane id=":TL_3_1" index="1" disallow="pedestrian tram rail_urban rail rail_electric rail_fast ship" speed="27.78" length="37.94" shape="771.73,1051.81 750.31,1083.13"/>
        <lane id=":TL_3_2" index="2" disallow="pedestrian tram rail_urban rail rail_electric rail_fast ship" speed="27.78" length="37.94" shape="769.19,1049.87 747.75,1081.21"/>
    </edge>
    <edge id=":TL_6" function="internal">
        <lane id=":TL_6_0" index="0" disallow="pedestrian tram rail_urban rail rail_electric rail_fast ship" speed="15.70" length="42.63" shape="765.46,1047.01 756.64,1055.89 747.51,1061.24 738.07,1063.03 728.30,1061.27"/>
        <lane id=":TL_6_1" index="1" disallow="pedestrian tram rail_urban rail rail_electric rail_fast ship" speed="14.95" length="38.59" shape="762.92,1045.06 754.88,1053.20 746.62,1058.11 738.11,1059.80 729.37,1058.26"/>
    </edge>
    <edge id=":TL_8" function="internal">
        <lane id=":TL_8_0" index="0" disallow="tram rail_urban rail rail_electric rail_fast ship" speed="15.28" length="45.77" shape="735.07,1042.26 747.53,1047.31 757.52,1052.53 766.72,1057.13 776.77,1060.30"/>
        <lane id=":TL_8_1" index="1" disallow="tram rail_urban rail rail_electric rail_fast ship" speed="15.28" length="45.77" shape="733.99,1045.28 746.52,1050.35 756.68,1055.61 766.03,1060.25 776.15,1063.44"/>
    </edge>
    <edge id=":TL_10" function="internal">
        <lane id=":TL_10_0" index="0" disallow="tram rail_urban rail rail_electric rail_fast ship" speed="12.94" length="48.31" shape="732.92,1048.29 746.12,1054.15 754.16,1061.74 755.93,1071.32 750.31,1083.13"/>
        <lane id=":TL_10_1" index="1" disallow="tram rail_urban rail rail_electric rail_fast ship" speed="12.09" length="42.02" shape="731.85,1051.31 743.45,1056.34 750.71,1062.81 752.51,1071.00 747.75,1081.21"/>
    </edge>
    <edge id=":TL_12" function="internal">
        <lane id=":TL_12_0" index="0" disallow="tram rail_urban rail rail_electric rail_fast ship" speed="27.78" length="38.13" shape="730.96,1068.62 753.02,1037.47"/>
        <lane id=":TL_12_1" index="1" disallow="tram rail_urban rail rail_electric rail_fast ship" speed="27.78" length="38.13" shape="733.52,1070.54 755.56,1039.42"/>
        <lane id=":TL_12_2" index="2" disallow="tram rail_urban rail rail_electric rail_fast ship" speed="27.78" length="38.13" shape="736.08,1072.46 758.10,1041.36"/>
    </edge>
    <edge id=":TL_15" function="internal">
        <lane id=":TL_15_0" index="0" disallow="tram rail_urban rail rail_electric rail_fast ship" speed="16.02" length="39.85" shape="740.67,1075.90 747.60,1068.74 755.83,1064.28 765.34,1062.51 776.15,1063.44"/>
        <lane id=":TL_15_1" index="1" disallow="tram rail_urban rail rail_electric rail_fast ship" speed="15.29" length="36.23" shape="743.23,1077.82 749.52,1071.34 757.00,1067.31 765.67,1065.72 775.52,1066.58"/>
    </edge>

    <edge id="100222849" from="DER" to="DNL" priority="7" type="highway.primary_link" spreadType="center" shape="826.47,1091.92 797.87,1085.47 783.10,1086.91 773.30,1088.80 764.86,1091.15 755.32,1095.36 746.45,1100.51 732.43,1117.90">
        <lane id="100222849_0" index="0" disallow="tram rail_urban rail rail_electric rail_fast ship" speed="22.22" length="105.96" shape="826.13,1091.84 797.87,1085.47 783.10,1086.91 773.30,1088.80 764.86,1091.15 755.32,1095.36 746.45,1100.51 732.19,1118.20">
            <param key="origId" value="100222849"/>
        </lane>
    </edge>
    <edge id="100222850#1" from="1158379398" to="DNR" name="طريق الاستقلال السريع" priority="12" type="highway.primary" spreadType="center" shape="620.27,1217.10 649.60,1182.52 681.61,1143.27 694.06,1126.07">
        <lane id="100222850#1_0" index="0" disallow="tram rail_urban rail rail_electric rail_fast ship" speed="27.78" length="95.83" shape="632.70,1197.50 647.14,1180.47 679.07,1141.32 692.40,1122.90">
            <param key="origId" value="100222850"/>
        </lane>
        <lane id="100222850#1_1" index="1" disallow="tram rail_urban rail rail_electric rail_fast ship" speed="27.78" length="95.83" shape="635.14,1199.57 649.60,1182.52 681.61,1143.27 694.99,1124.78">
            <param key="origId" value="100222850"/>
        </lane>
        <lane id="100222850#1_2" index="2" disallow="tram rail_urban rail rail_electric rail_fast ship" speed="27.78" length="95.83" shape="637.58,1201.64 652.06,1184.57 684.15,1145.22 697.59,1126.66">
            <param key="origId" value="100222850"/>
        </lane>
    </edge>
    <edge id="100222856#2-AddedOnRampEdge" from="DSL" to="100222856#2-AddedOnRampNode" name="طريق الاستقلال السريع" priority="12" type="highway.primary" spreadType="center" shape="782.41,1000.94 842.31,923.63 843.54,921.89">
        <lane id="100222856#2-AddedOnRampEdge_0" index="0" disallow="tram rail_urban rail rail_electric rail_fast ship" speed="27.78" length="98.43" acceleration="1" shape="779.54,996.81 838.51,920.69 839.62,919.12">
            <param key="origId" value="100222856"/>
        </lane>
        <lane id="100222856#2-AddedOnRampEdge_1" index="1" disallow="tram rail_urban rail rail_electric rail_fast ship" speed="27.78" length="98.43" shape="782.07,998.77 841.04,922.65 842.23,920.97">
            <param key="origId" value="100222856"/>
        </lane>
        <lane id="100222856#2-AddedOnRampEdge_2" index="2" disallow="tram rail_urban rail rail_electric rail_fast ship" speed="27.78" length="98.43" shape="784.60,1000.73 843.58,924.61 844.85,922.81">
            <param key="origId" value="100222856"/>
        </lane>
        <lane id="100222856#2-AddedOnRampEdge_3" index="3" disallow="tram rail_urban rail rail_electric rail_fast ship" speed="27.78" length="98.43" shape="787.13,1002.69 846.11,926.57 847.46,924.66">
            <param key="origId" value="100222856"/>
        </lane>
    </edge>
    <edge id="100453009#0" from="DWL" to="4724938802" name="شارع المحزوره" priority="11" type="highway.secondary" spreadType="center" shape="689.82,1045.41 648.42,1027.48 622.00,1015.59 600.89,1005.32">
        <lane id="100453009#0_0" index="0" disallow="tram rail_urban rail rail_electric rail_fast ship" speed="19.44" length="95.83" acceleration="1" shape="689.18,1046.88 647.77,1028.94 621.32,1017.04 601.75,1007.52">
            <param key="origId" value="100453009"/>
        </lane>
        <lane id="100453009#0_1" index="1" disallow="tram rail_urban rail rail_electric rail_fast ship" speed="19.44" length="95.83" acceleration="1" shape="690.46,1043.94 649.07,1026.02 622.68,1014.14 603.15,1004.64">
            <param key="origId" value="100453009"/>
        </lane>
    </edge>
    <edge id="257375847#2" from="1158379453" to="257375847#2-AddedOffRampNode" name="طريق الاستقلال السريع" priority="12" type="highway.primary" spreadType="center" shape="895.44,902.65 893.25,904.56">
        <lane id="257375847#2_0" index="0" disallow="pedestrian tram rail_urban rail rail_electric rail_fast ship" speed="27.78" length="0.20" shape="895.22,907.09 895.07,907.22">
            <param key="origId" value="257375847"/>
        </lane>
        <lane id="257375847#2_1" index="1" disallow="pedestrian tram rail_urban rail rail_electric rail_fast ship" speed="27.78" length="0.20" shape="893.12,904.67 892.97,904.81">
            <param key="origId" value="257375847"/>
        </lane>
        <lane id="257375847#2_2" index="2" disallow="pedestrian tram rail_urban rail rail_electric rail_fast ship" speed="27.78" length="0.20" shape="891.02,902.26 890.86,902.39">
            <param key="origId" value="257375847"/>
        </lane>
    </edge>
    <edge id="257375847#2-AddedOffRampEdge" from="257375847#2-AddedOffRampNode" to="DSR" name="طريق الاستقلال السريع" priority="12" type="highway.primary" spreadType="center" shape="894.30,905.76 870.29,926.66 847.98,953.90 828.06,979.76">
        <lane id="257375847#2-AddedOffRampEdge_0" index="0" disallow="pedestrian tram rail_urban rail rail_electric rail_fast ship" speed="27.78" length="94.07" shape="894.43,912.01 873.75,930.01 851.74,956.89 832.84,981.41">
            <param key="origId" value="257375847"/>
        </lane>
        <lane id="257375847#2-AddedOffRampEdge_1" index="1" disallow="pedestrian tram rail_urban rail rail_electric rail_fast ship" speed="27.78" length="94.07" shape="892.33,909.59 871.44,927.78 849.23,954.90 830.31,979.46">
            <param key="origId" value="257375847"/>
        </lane>
        <lane id="257375847#2-AddedOffRampEdge_2" index="2" disallow="pedestrian tram rail_urban rail rail_electric rail_fast ship" speed="27.78" length="94.07" shape="890.23,907.18 869.14,925.54 846.73,952.90 827.77,977.51">
            <param key="origId" value="257375847"/>
        </lane>
        <lane id="257375847#2-AddedOffRampEdge_3" index="3" disallow="pedestrian tram rail_urban rail rail_electric rail_fast ship" speed="27.78" length="94.07" shape="888.13,904.77 866.83,923.31 844.22,950.91 825.24,975.56">
            <param key="origId" value="257375847"/>
        </lane>
    </edge>
    <edge id="277903338#0" from="DSR" to="5838705856" priority="7" type="highway.primary_link" spreadType="center" shape="831.87,982.69 824.57,990.86 819.25,1001.73 815.51,1009.07 812.54,1017.49 811.19,1024.70 810.92,1032.83 811.60,1040.00">
        <lane id="277903338#0_0" index="0" disallow="tram rail_urban rail rail_electric rail_fast ship" speed="5.56" length="60.59" shape="830.33,984.41 824.57,990.86 819.25,1001.73 815.51,1009.07 812.54,1017.49 811.19,1024.70 810.92,1032.83 811.60,1040.00">
            <param key="origId" value="277903338"/>
        </lane>
    </edge>
    <edge id="277903338#1" from="5838705856" to="DEL" priority="7" type="highway.primary_link" spreadType="center" shape="811.60,1040.00 813.96,1051.77 817.61,1060.91 823.87,1067.74 832.22,1074.59">
        <lane id="277903338#1_0" index="0" disallow="tram rail_urban rail rail_electric rail_fast ship" speed="5.56" length="27.69" shape="811.60,1040.00 813.96,1051.77 817.61,1060.91 821.56,1065.22">
            <param key="origId" value="277903338"/>
        </lane>
    </edge>
    <edge id="278047374" from="DWR" to="DSL" priority="7" type="highway.primary_link" spreadType="center" shape="659.13,1019.53 676.54,1017.80 705.43,1028.70 716.83,1032.47 726.10,1032.50 734.74,1031.22 748.94,1026.48 760.96,1017.92 778.62,998.00">
        <lane id="278047374_0" index="0" disallow="tram rail_urban rail rail_electric rail_fast ship" speed="11.11" length="114.72" shape="677.39,1018.12 705.43,1028.70 716.83,1032.47 726.10,1032.50 734.74,1031.22 748.94,1026.48 760.96,1017.92 777.56,999.20">
            <param key="origId" value="278047374"/>
        </lane>
    </edge>
    <edge id="348317255" from="DNR" to="DWL" priority="7" type="highway.primary_link" spreadType="center" shape="694.06,1126.07 697.22,1102.98 699.56,1091.98 700.68,1081.35 700.60,1072.84 699.14,1061.08">
        <lane id="348317255_0" index="0" disallow="tram rail_urban rail rail_electric rail_fast ship" speed="5.56" length="48.10" shape="696.43,1108.73 697.22,1102.98 699.56,1091.98 700.68,1081.35 700.60,1072.84 699.14,1061.08">
            <param key="origId" value="348317255"/>
        </lane>
    </edge>
    <edge id="E2TL" from="DER" to="TL" name="شارع 47" priority="-1" type="highway.tertiary" spreadType="center" shape="834.72,1085.87 787.96,1075.58 774.23,1073.11">
        <lane id="E2TL_0" index="0" disallow="tram rail_urban rail rail_electric rail_fast ship" speed="13.89" length="54.77" shape="827.11,1087.47 787.33,1078.72 773.60,1076.25">
            <param key="origId" value="479386645"/>
        </lane>
        <lane id="E2TL_1" index="1" disallow="tram rail_urban rail rail_electric rail_fast ship" speed="13.89" length="54.77" shape="827.80,1084.35 787.96,1075.58 774.22,1073.11">
            <param key="origId" value="479386645"/>
        </lane>
        <lane id="E2TL_2" index="2" disallow="tram rail_urban rail rail_electric rail_fast ship" speed="13.89" length="54.77" shape="828.50,1081.23 788.59,1072.44 774.80,1069.96">
            <param key="origId" value="479386645"/>
        </lane>
    </edge>
    <edge id="N2TL" from="DNR" to="TL" name="طريق الاستقلال السريع" priority="-1" type="highway.primary" spreadType="center" shape="694.06,1126.07 727.35,1078.93 733.87,1070.07 735.10,1067.68">
        <lane id="N2TL_0" index="0" disallow="tram rail_urban rail rail_electric rail_fast ship" speed="27.78" length="51.41" shape="701.09,1110.57 724.75,1077.06 730.96,1068.62">
            <param key="origId" value="277902566"/>
        </lane>
        <lane id="N2TL_1" index="1" disallow="tram rail_urban rail rail_electric rail_fast ship" speed="27.78" length="51.41" shape="703.70,1112.41 727.35,1078.93 733.52,1070.54">
            <param key="origId" value="277902566"/>
        </lane>
        <lane id="N2TL_2" index="2" disallow="tram rail_urban rail rail_electric rail_fast ship" speed="27.78" length="51.41" shape="706.32,1114.26 729.95,1080.80 736.08,1072.46">
            <param key="origId" value="277902566"/>
        </lane>
    </edge>
    <edge id="N2TLT" from="1158379398" to="TL" priority="-1" type="highway.primary_link" spreadType="center" shape="622.80,1219.05 643.64,1203.47 661.30,1183.67 680.58,1159.97 721.31,1105.32 736.63,1084.05 744.21,1073.80 745.11,1071.75">
        <lane id="N2TLT_0" index="0" disallow="tram rail_urban rail rail_electric rail_fast ship" speed="22.22" length="163.76" shape="639.99,1204.20 642.55,1202.28 660.08,1182.63 679.32,1158.99 720.02,1104.37 735.34,1083.11 740.67,1075.90">
            <param key="origId" value="619493867"/>
        </lane>
        <lane id="N2TLT_1" index="1" disallow="tram rail_urban rail rail_electric rail_fast ship" speed="22.22" length="163.76" shape="641.90,1206.77 644.73,1204.66 662.52,1184.71 681.84,1160.95 722.60,1106.27 737.92,1084.99 743.23,1077.82">
            <param key="origId" value="619493867"/>
        </lane>
    </edge>
    <edge id="S2TL" from="DSR" to="TL" name="طريق الاستقلال السريع" priority="-1" type="highway.primary" spreadType="center" length="97.77" shape="826.80,978.78 801.98,1011.85 780.80,1039.56 769.84,1054.37">
        <lane id="S2TL_0" index="0" disallow="pedestrian tram rail_urban rail rail_electric rail_fast ship" speed="27.78" length="97.77" shape="828.08,982.40 804.53,1013.78 783.36,1041.48 774.27,1053.76">
            <param key="origId" value="257375847"/>
        </lane>
        <lane id="S2TL_1" index="1" disallow="pedestrian tram rail_urban rail rail_electric rail_fast ship" speed="27.78" length="97.77" shape="825.69,980.26 801.98,1011.85 780.80,1039.56 771.73,1051.81">
            <param key="origId" value="257375847"/>
        </lane>
        <lane id="S2TL_2" index="2" disallow="pedestrian tram rail_urban rail rail_electric rail_fast ship" speed="27.78" length="97.77" shape="823.30,978.12 799.43,1009.92 778.24,1037.64 769.19,1049.87">
            <param key="origId" value="257375847"/>
        </lane>
    </edge>
    <edge id="S2TLT" from="1158379453" to="TL" priority="-1" type="highway.primary_link" spreadType="center" shape="890.15,899.06 879.87,901.63 872.05,907.58 838.26,947.88 818.93,972.66 800.44,997.12 766.42,1043.28 760.99,1049.97">
        <lane id="S2TLT_0" index="0" disallow="pedestrian tram rail_urban rail rail_electric rail_fast ship" speed="22.22" length="191.26" shape="885.95,901.76 880.58,903.10 873.16,908.75 839.50,948.89 820.20,973.63 801.72,998.08 767.69,1044.26 765.46,1047.01">
            <param key="origId" value="484028063"/>
        </lane>
        <lane id="S2TLT_1" index="1" disallow="pedestrian tram rail_urban rail rail_electric rail_fast ship" speed="22.22" length="191.26" shape="885.18,898.65 879.16,900.16 870.94,906.41 837.02,946.87 817.66,971.69 799.16,996.16 765.15,1042.30 762.92,1045.06">
            <param key="origId" value="484028063"/>
        </lane>
    </edge>
    <edge id="TL2E" from="TL" to="DEL" name="شارع 47" priority="-1" type="highway.tertiary" spreadType="center" shape="773.44,1062.90 832.22,1074.59">
        <lane id="TL2E_0" index="0" disallow="tram rail_urban rail rail_electric rail_fast ship" speed="13.89" length="43.83" shape="776.77,1060.30 819.76,1068.85">
            <param key="origId" value="289415155"/>
        </lane>
        <lane id="TL2E_1" index="1" disallow="tram rail_urban rail rail_electric rail_fast ship" speed="13.89" length="43.83" shape="776.15,1063.44 819.14,1071.99">
            <param key="origId" value="289415155"/>
        </lane>
        <lane id="TL2E_2" index="2" disallow="tram rail_urban rail rail_electric rail_fast ship" speed="13.89" length="43.83" shape="775.52,1066.58 818.52,1075.13">
            <param key="origId" value="289415155"/>
        </lane>
    </edge>
    <edge id="TL2N" from="TL" to="DNL" name="طريق الاستقلال السريع" priority="-1" type="highway.primary" spreadType="center" shape="755.64,1075.96 727.21,1114.19">
        <lane id="TL2N_0" index="0" disallow="tram rail_urban rail rail_electric rail_fast ship" speed="27.78" length="38.71" shape="752.87,1085.05 729.78,1116.10">
            <param key="origId" value="484028064"/>
        </lane>
        <lane id="TL2N_1" index="1" disallow="tram rail_urban rail rail_electric rail_fast ship" speed="27.78" length="38.71" shape="750.31,1083.13 727.21,1114.19">
            <param key="origId" value="484028064"/>
        </lane>
        <lane id="TL2N_2" index="2" disallow="tram rail_urban rail rail_electric rail_fast ship" speed="27.78" length="38.71" shape="747.75,1081.21 724.64,1112.28">
            <param key="origId" value="484028064"/>
        </lane>
    </edge>
    <edge id="TL2S" from="TL" to="DSL" name="طريق الاستقلال السريع" priority="-1" type="highway.primary" spreadType="center" shape="750.19,1046.42 758.00,1036.23 783.68,1001.92">
        <lane id="TL2S_0" index="0" disallow="tram rail_urban rail rail_electric rail_fast ship" speed="27.78" length="45.41" shape="753.02,1037.47 755.45,1034.30 780.24,1001.17">
            <param key="origId" value="100222856"/>
        </lane>
        <lane id="TL2S_1" index="1" disallow="tram rail_urban rail rail_electric rail_fast ship" speed="27.78" length="45.41" shape="755.56,1039.42 758.00,1036.23 782.80,1003.09">
            <param key="origId" value="100222856"/>
        </lane>
        <lane id="TL2S_2" index="2" disallow="tram rail_urban rail rail_electric rail_fast ship" speed="27.78" length="45.41" shape="758.10,1041.36 760.55,1038.16 785.37,1005.01">
            <param key="origId" value="100222856"/>
        </lane>
    </edge>
    <edge id="TL2W" from="TL" to="DWL" name="شارع المحزوره" priority="-1" type="highway.secondary" spreadType="center" shape="732.20,1060.96 716.77,1055.47 689.26,1044.58">
        <lane id="TL2W_0" index="0" disallow="tram rail_urban rail rail_electric rail_fast ship" speed="11.11" length="27.68" shape="728.30,1061.27 716.21,1056.97 702.36,1051.48">
            <param key="origId" value="277903336"/>